/*--------------------------------*- C++ -*----------------------------------*\
  =========                 |
  \\      /  F ield         | OpenFOAM: The Open Source CFD Toolbox
   \\    /   O peration     | Website:  https://openfoam.org
    \\  /    A nd           | Version:  6
     \\/     M anipulation  |
\*---------------------------------------------------------------------------*/
FoamFile
{
    version     2.0;
    format      ascii;
    class       volScalarField;
    object      p_rgh;
}
// * * * * * * * * * * * * * * * * * * * * * * * * * * * * * * * * * * * * * //

dimensions      [1 -1 -2 0 0 0 0];

internalField   uniform 0.0;

boundaryField
{
    interface
    {
        type            fixedFluxPressure;
        value           uniform 0;
    }
    outlet
    {
        type            fixedFluxPressure;
        value           uniform 0;
    }
    inlet
    {
        type            fixedFluxPressure;
        value           uniform 0;
    }
    bottom
    {
        type            fixedFluxPressure;
        value           uniform 0;
    }
    top
    {
        type            totalPressure;
        p0              uniform 0;
    }
    left
	{
        type            fixedFluxPressure;
        value           uniform 0;
    }
    symmetry
    {
        type            symmetryPlane;
    }
}


// ************************************************************************* //
